Version 4
SHEET 1 880 680
Error: Failed to generate circuit