Version 4
SHEET 1 880 680
SYMBOL voltage 100 184 R0
SYMATTR InstName V1
SYMATTR Value 3
SYMBOL res 196 184 R90
SYMATTR InstName R1
SYMATTR Value 5
SYMBOL cap 164 200 R0
SYMATTR InstName C1
SYMATTR Value 5m
WIRE 180 264 100 264
WIRE 100 264 100 280
FLAG 100 280 0