Version 4
SHEET 1 880 680
WIRE 256 128 128 128
WIRE 352 128 256 128
WIRE 432 128 352 128
WIRE 512 128 432 128
WIRE 256 208 128 208
WIRE 352 208 256 208
WIRE 432 208 352 208
WIRE 512 208 432 208
SYMBOL voltage 128 112 R0
WINDOW 123 0 0 Left 0
WINDOW 39 0 0 Left 0
SYMATTR InstName V1
SYMATTR Value 15
SYMBOL res 240 112 R0
SYMATTR InstName R1
SYMATTR Value 2
SYMBOL res 336 112 R0
SYMATTR InstName R2
SYMATTR Value 3
SYMBOL res 416 112 R0
SYMATTR InstName R3
SYMATTR Value 4
SYMBOL res 496 112 R0
SYMATTR InstName R4
SYMATTR Value 8
