Version 4
SHEET 1 880 680
WIRE 320 -96 128 -96
WIRE 320 32 320 -16
WIRE 128 144 128 -96
WIRE 320 224 320 112
WIRE 320 416 320 304
WIRE 128 496 128 224
WIRE 320 496 128 496
SYMBOL voltage 128 128 R0
WINDOW 123 0 0 Left 0
WINDOW 39 0 0 Left 0
SYMATTR InstName V1
SYMATTR Value 200
SYMBOL res 304 -112 R0
SYMATTR InstName R1
SYMATTR Value 1
SYMBOL res 304 16 R0
SYMATTR InstName R2
SYMATTR Value 22
SYMBOL res 304 208 R0
SYMATTR InstName R3
SYMATTR Value 34
SYMBOL res 304 400 R0
SYMATTR InstName R4
SYMATTR Value 36
